g++ -g -I../systemc-2.3.1/include -DSYSTEMC    -c -o sim-outorder.o sim-outorder.cpp
